  Page 1                                    Fri Jul 17 07:33:12 2026

  ******************************************************************
  *                           E P A N E T                          *
  *                   Hydraulic and Water Quality                  *
  *                   Analysis for Pipe Networks                   *
  *                         Version 2.2                            *
  ******************************************************************
  
  S3M-WaterTwin RO-TRAIN-001 product-water storage / pumping / pipeline 
  Read-only what-if hydraulic model (EPANET, driven via WNTR). Units: CM
  Pressure-dependent demand (PDA), required pressure 25 m. Generated by
   
      Input Data File ................... temp.inp
      Number of Junctions................ 6
      Number of Reservoirs............... 1
      Number of Tanks ................... 1
      Number of Pipes ................... 5
      Number of Pumps ................... 2
      Number of Valves .................. 1
      Headloss Formula .................. Hazen-Williams
      Nodal Demand Model ................ PDA
      Hydraulic Timestep ................ 1.00 hrs
      Hydraulic Accuracy ................ 0.001000
      Status Check Frequency ............ 2
      Maximum Trials Checked ............ 10
      Damping Limit Threshold ........... 0.000000
      Maximum Trials .................... 200
      Quality Analysis .................. None
      Specific Gravity .................. 1.00
      Relative Kinematic Viscosity ...... 1.00
      Relative Chemical Diffusivity ..... 1.00
      Demand Multiplier ................. 1.00
      Total Duration .................... 0.00 hrs
      Reporting Criteria:
         No Nodes
         No Links
   
  Analysis begun Fri Jul 17 07:33:12 2026

  Analysis ended Fri Jul 17 07:33:12 2026
